Version8/Distrib/Examples/ADiakoptics/EPRI_Ckt5-G/sub/Branches.dss
New "Line.mdv201_connector" bus1=_mdv_sub_1_lsb bus2=mdv201 length=0.001 r1=0.001 r0=0.001 x1=0.01 x0=0.01 C1=0 C0=0 units=km enabled=true phases=3
New "Line.mdv201_hn_2_793_abc1023346_sw" bus1=mdv201 bus2=mdv201_hn_2_793_abc1023346_int length=0.001 Switch=True units=km enabled=true phases=3
New "Line.mdv201_hn_2_793_abc1023346" bus1=mdv201_hn_2_793_abc1023346_int bus2=1023346 length=0.04572 geometry=3PH_HORIZ_LG_1C-AL_556_19STRAL_556_19STRAL_556_19STRACSR_1/0_6/1 Seasons=1 Ratings=[0,] normamps=619 emergamps=743 units=km enabled=true phases=3
New "Line.sw-hn_2_793_sw" bus1=1023346 bus2=mdv201_796usd_int length=0.001 Switch=True units=km enabled=true phases=3
New "Line.mdv201_796usd" bus1=mdv201_796usd_int bus2=796 length=0.001524 geometry=3PH_HORIZ_LG_1C-BUSBARBUSBARBUSBARBUSBAR Seasons=1 Ratings=[0,] normamps=2000 emergamps=2400 units=km enabled=true phases=3
New "Line.mdv201_hn_2_794_abc791" bus1=796 bus2=791 length=0.0597408 geometry=3PH_HORIZ_LG_1C-AL_556_19STRAL_556_19STRAL_556_19STRACSR_1/0_6/1 Seasons=1 Ratings=[0,] normamps=619 emergamps=743 units=km enabled=true phases=3
New "Line.mdv201_hn_2_795_abc788" bus1=791 bus2=788 length=0.0667512 geometry=3PH_HORIZ_LG_1C-AL_556_19STRAL_556_19STRAL_556_19STRACSR_1/0_6/1 Seasons=1 Ratings=[0,] normamps=619 emergamps=743 units=km enabled=true phases=3
New "Line.mdv201_hn_2_796_abc782" bus1=788 bus2=782 length=0.0679704 geometry=3PH_VERT_1C-AL_556_19STRAL_556_19STRAL_556_19STRACSR_1/0_6/1 Seasons=1 Ratings=[0,] normamps=619 emergamps=743 units=km enabled=true phases=3
New "Line.mdv201_hn_2_808_abc783" bus1=782 bus2=783 length=0.0573024 geometry=3PH_VERT_1C-AL_556_19STRAL_556_19STRAL_556_19STRACSR_1/0_6/1 Seasons=1 Ratings=[0,] normamps=619 emergamps=743 units=km enabled=true phases=3
New "Line.mdv201_hn_2_809_abc861" bus1=783 bus2=861 length=0.0585216 geometry=3PH_VERT_1C-AL_556_19STRAL_556_19STRAL_556_19STRACSR_1/0_6/1 Seasons=1 Ratings=[0,] normamps=619 emergamps=743 units=km enabled=true phases=3
New "Line.mdv201_hn_2_810_abc63685" bus1=861 bus2=63685 length=0.0734568 geometry=3PH_VERT_1C-AL_556_19STRAL_556_19STRAL_556_19STRACSR_1/0_6/1 Seasons=1 Ratings=[0,] normamps=619 emergamps=743 units=km enabled=true phases=3
New "Line.mdv201_hn_2_811_abc63638" bus1=63685 bus2=63638 length=0.0938784 geometry=3PH_HORIZ_LG_1C-AL_556_19STRAL_556_19STRAL_556_19STRACSR_1/0_6/1 Seasons=1 Ratings=[0,] normamps=619 emergamps=743 units=km enabled=true phases=3
New "Line.mdv201_1010727fuse" bus1=63638.1 bus2=1010727.1 length=0.001524 geometry=1PH-BUSBARNONENONEBUSBAR Seasons=1 Ratings=[0,] normamps=2000 emergamps=2400 units=km enabled=true phases=1
New "Line.mdv201_hn_2_424_a784" bus1=1010727.1 bus2=784.1 length=0.0932688 geometry=1PH-AL_1/0_7STRNONENONEACSR_1/0_6/1 Seasons=1 Ratings=[0,] normamps=218 emergamps=262 units=km enabled=true phases=1
New "Line.s_mdv201_hn_2_424_a784-1a0" bus1=x_784.1 bus2=x_784_1.1 linecode=defaultSecondary Seasons=1 Ratings=[400,] normamps=400 emergamps=600 phases=1 length=100 units=ft
New "Line.s_mdv201_hn_2_424_a784-1a1" bus1=x_784.1 bus2=x_784_2.1 linecode=defaultSecondary Seasons=1 Ratings=[400,] normamps=400 emergamps=600 phases=1 length=100 units=ft
New "Line.mdv201_hn_2_423_a785" bus1=784.1 bus2=785.1 length=0.0469392 geometry=1PH-AL_#2_7STRNONENONEACSR_1/0_6/1 Seasons=1 Ratings=[0,] normamps=163 emergamps=196 units=km enabled=true phases=1
New "Line.s_mdv201_hn_2_423_a785-1a0" bus1=x_785.1 bus2=x_785_1.1 linecode=defaultSecondary Seasons=1 Ratings=[400,] normamps=400 emergamps=600 phases=1 length=100 units=ft
New "Line.mdv201_hn_2_422_a790" bus1=785.1 bus2=790.1 length=0.0469392 geometry=1PH-AL_#2_7STRNONENONEACSR_1/0_6/1 Seasons=1 Ratings=[0,] normamps=163 emergamps=196 units=km enabled=true phases=1
New "Line.s_mdv201_hn_2_422_a790-1a0" bus1=x_790.1 bus2=x_790_1.1 linecode=defaultSecondary Seasons=1 Ratings=[400,] normamps=400 emergamps=600 phases=1 length=100 units=ft
New "Line.s_mdv201_hn_2_422_a790-1a1" bus1=x_790.1 bus2=x_790_2.1 linecode=defaultSecondary Seasons=1 Ratings=[400,] normamps=400 emergamps=600 phases=1 length=100 units=ft
New "Line.mdv201_hn_2_991_a798" bus1=790.1 bus2=798.1 length=0.0420624 geometry=1PH-AL_#2_7STRNONENONEACSR_1/0_6/1 Seasons=1 Ratings=[0,] normamps=163 emergamps=196 units=km enabled=true phases=1
New "Line.mdv201_hn_2_421_a808" bus1=798.1 bus2=808.1 length=0.0405384 geometry=1PH-AL_#2_7STRNONENONEACSR_1/0_6/1 Seasons=1 Ratings=[0,] normamps=163 emergamps=196 units=km enabled=true phases=1
New "Line.s_mdv201_hn_2_421_a808-1a0" bus1=x_808.1 bus2=x_808_1.1 linecode=defaultSecondary Seasons=1 Ratings=[400,] normamps=400 emergamps=600 phases=1 length=100 units=ft
New "Line.mdv201_hn_2_420_a814" bus1=808.1 bus2=814.1 length=0.028956 geometry=1PH-AL_#2_7STRNONENONEACSR_1/0_6/1 Seasons=1 Ratings=[0,] normamps=163 emergamps=196 units=km enabled=true phases=1
New "Line.s_mdv201_hn_2_420_a814-1a0" bus1=x_814.1 bus2=x_814_1.1 linecode=defaultSecondary Seasons=1 Ratings=[400,] normamps=400 emergamps=600 phases=1 length=100 units=ft
New "Line.s_mdv201_hn_2_420_a814-1a1" bus1=x_814.1 bus2=x_814_2.1 linecode=defaultSecondary Seasons=1 Ratings=[400,] normamps=400 emergamps=600 phases=1 length=100 units=ft
New "Line.s_mdv201_hn_2_420_a814-1a2" bus1=x_814.1 bus2=x_814_3.1 linecode=defaultSecondary Seasons=1 Ratings=[400,] normamps=400 emergamps=600 phases=1 length=100 units=ft
New "Line.mdv201_hn_2_419_a827" bus1=814.1 bus2=827.1 length=0.0536448 geometry=1PH-AL_#2_7STRNONENONEACSR_1/0_6/1 Seasons=1 Ratings=[0,] normamps=163 emergamps=196 units=km enabled=true phases=1
New "Line.s_mdv201_hn_2_419_a827-1a0" bus1=x_827.1 bus2=x_827_1.1 linecode=defaultSecondary Seasons=1 Ratings=[400,] normamps=400 emergamps=600 phases=1 length=100 units=ft
New "Line.mdv201_hn_2_418_a835" bus1=827.1 bus2=835.1 length=0.0527304 geometry=1PH-AL_#2_7STRNONENONEACSR_1/0_6/1 Seasons=1 Ratings=[0,] normamps=163 emergamps=196 units=km enabled=true phases=1
New "Line.s_mdv201_hn_2_418_a835-1a0" bus1=x_835.1 bus2=x_835_1.1 linecode=defaultSecondary Seasons=1 Ratings=[400,] normamps=400 emergamps=600 phases=1 length=100 units=ft
New "Line.s_mdv201_hn_2_418_a835-1a1" bus1=x_835.1 bus2=x_835_2.1 linecode=defaultSecondary Seasons=1 Ratings=[400,] normamps=400 emergamps=600 phases=1 length=100 units=ft
New "Line.mdv201_hn_2_417_a842" bus1=835.1 bus2=842.1 length=0.048768 geometry=1PH-AL_#2_7STRNONENONEACSR_1/0_6/1 Seasons=1 Ratings=[0,] normamps=163 emergamps=196 units=km enabled=true phases=1
New "Line.s_mdv201_hn_2_417_a842-1a0" bus1=x_842.1 bus2=x_842_1.1 linecode=defaultSecondary Seasons=1 Ratings=[400,] normamps=400 emergamps=600 phases=1 length=100 units=ft
New "Line.mdv201_hn_2_416_a844" bus1=842.1 bus2=844.1 length=0.04572 geometry=1PH-AL_#2_7STRNONENONEACSR_1/0_6/1 Seasons=1 Ratings=[0,] normamps=163 emergamps=196 units=km enabled=true phases=1
New "Line.s_mdv201_hn_2_416_a844-1a0" bus1=x_844.1 bus2=x_844_1.1 linecode=defaultSecondary Seasons=1 Ratings=[400,] normamps=400 emergamps=600 phases=1 length=100 units=ft
New "Line.s_mdv201_hn_2_416_a844-1a1" bus1=x_844.1 bus2=x_844_2.1 linecode=defaultSecondary Seasons=1 Ratings=[400,] normamps=400 emergamps=600 phases=1 length=100 units=ft
New "Line.mdv201_hn_2_415_a845" bus1=844.1 bus2=845.1 length=0.04572 geometry=1PH-AL_#2_7STRNONENONEACSR_1/0_6/1 Seasons=1 Ratings=[0,] normamps=163 emergamps=196 units=km enabled=true phases=1
New "Line.mdv201_hn_2_414_a843" bus1=844.1 bus2=843.1 length=0.057912 geometry=1PH-AL_#2_7STRNONENONEACSR_1/0_6/1 Seasons=1 Ratings=[0,] normamps=163 emergamps=196 units=km enabled=true phases=1
New "Line.s_mdv201_hn_2_414_a843-1a0" bus1=x_843.1 bus2=x_843_1.1 linecode=defaultSecondary Seasons=1 Ratings=[400,] normamps=400 emergamps=600 phases=1 length=100 units=ft
New "Line.mdv201_hn_2_413_a838" bus1=843.1 bus2=838.1 length=0.042672 geometry=1PH-AL_#2_7STRNONENONEACSR_1/0_6/1 Seasons=1 Ratings=[0,] normamps=163 emergamps=196 units=km enabled=true phases=1
New "Line.s_mdv201_hn_2_413_a838-1a0" bus1=x_838.1 bus2=x_838_1.1 linecode=defaultSecondary Seasons=1 Ratings=[400,] normamps=400 emergamps=600 phases=1 length=100 units=ft
New "Line.s_mdv201_hn_2_413_a838-1a1" bus1=x_838.1 bus2=x_838_2.1 linecode=defaultSecondary Seasons=1 Ratings=[400,] normamps=400 emergamps=600 phases=1 length=100 units=ft
New "Line.s_mdv201_hn_2_413_a838-1a2" bus1=x_838.1 bus2=x_838_3.1 linecode=defaultSecondary Seasons=1 Ratings=[400,] normamps=400 emergamps=600 phases=1 length=100 units=ft
New "Line.mdv201_hn_2_412_a832" bus1=838.1 bus2=832.1 length=0.0524256 geometry=1PH-AL_#2_7STRNONENONEACSR_1/0_6/1 Seasons=1 Ratings=[0,] normamps=163 emergamps=196 units=km enabled=true phases=1
New "Line.s_mdv201_hn_2_412_a832-1a0" bus1=x_832.1 bus2=x_832_1.1 linecode=defaultSecondary Seasons=1 Ratings=[400,] normamps=400 emergamps=600 phases=1 length=100 units=ft
New "Line.s_mdv201_hn_2_412_a832-1a1" bus1=x_832.1 bus2=x_832_2.1 linecode=defaultSecondary Seasons=1 Ratings=[400,] normamps=400 emergamps=600 phases=1 length=100 units=ft
New "Line.s_mdv201_hn_2_412_a832-1a2" bus1=x_832.1 bus2=x_832_3.1 linecode=defaultSecondary Seasons=1 Ratings=[400,] normamps=400 emergamps=600 phases=1 length=100 units=ft
New "Line.mdv201_hn_2_411_a828" bus1=832.1 bus2=828.1 length=0.044196 geometry=1PH-AL_#2_7STRNONENONEACSR_1/0_6/1 Seasons=1 Ratings=[0,] normamps=163 emergamps=196 units=km enabled=true phases=1
New "Line.s_mdv201_hn_2_411_a828-1a0" bus1=x_828.1 bus2=x_828_1.1 linecode=defaultSecondary Seasons=1 Ratings=[400,] normamps=400 emergamps=600 phases=1 length=100 units=ft
New "Line.s_mdv201_hn_2_411_a828-1a1" bus1=x_828.1 bus2=x_828_2.1 linecode=defaultSecondary Seasons=1 Ratings=[400,] normamps=400 emergamps=600 phases=1 length=100 units=ft
New "Line.s_mdv201_hn_2_411_a828-1a2" bus1=x_828.1 bus2=x_828_3.1 linecode=defaultSecondary Seasons=1 Ratings=[400,] normamps=400 emergamps=600 phases=1 length=100 units=ft
New "Line.mdv201_hn_2_410_a819" bus1=828.1 bus2=819.1 length=0.047244 geometry=1PH-AL_#2_7STRNONENONEACSR_1/0_6/1 Seasons=1 Ratings=[0,] normamps=163 emergamps=196 units=km enabled=true phases=1
New "Line.s_mdv201_hn_2_410_a819-1a0" bus1=x_819.1 bus2=x_819_1.1 linecode=defaultSecondary Seasons=1 Ratings=[400,] normamps=400 emergamps=600 phases=1 length=100 units=ft
New "Line.s_mdv201_hn_2_410_a819-1a1" bus1=x_819.1 bus2=x_819_2.1 linecode=defaultSecondary Seasons=1 Ratings=[400,] normamps=400 emergamps=600 phases=1 length=100 units=ft
New "Line.s_mdv201_hn_2_410_a819-1a2" bus1=x_819.1 bus2=x_819_3.1 linecode=defaultSecondary Seasons=1 Ratings=[400,] normamps=400 emergamps=600 phases=1 length=100 units=ft
New "Line.mdv201_hn_2_409_a820" bus1=819.1 bus2=820.1 length=0.0545592 geometry=1PH-AL_#2_7STRNONENONEACSR_1/0_6/1 Seasons=1 Ratings=[0,] normamps=163 emergamps=196 units=km enabled=true phases=1
New "Line.s_mdv201_hn_2_409_a820-1a0" bus1=x_820.1 bus2=x_820_1.1 linecode=defaultSecondary Seasons=1 Ratings=[400,] normamps=400 emergamps=600 phases=1 length=100 units=ft
New "Line.s_mdv201_hn_2_409_a820-1a1" bus1=x_820.1 bus2=x_820_2.1 linecode=defaultSecondary Seasons=1 Ratings=[400,] normamps=400 emergamps=600 phases=1 length=100 units=ft
New "Line.mdv201_1010729fuse" bus1=798.1 bus2=1010729.1 length=0.001524 geometry=1PH-BUSBARNONENONEBUSBAR Seasons=1 Ratings=[0,] normamps=2000 emergamps=2400 units=km enabled=true phases=1
New "Line.mdv201_hn_2p026_a1010728" bus1=1010729.1 bus2=1010728.1 length=0.042672 linecode=UG_1/0AL Seasons=1 Ratings=[400,] normamps=150 emergamps=150 units=km enabled=true phases=1
New "Line.mdv201_hn_2p028_a1160489" bus1=1010728.1 bus2=1160489.1 length=0.1197864 linecode=UG_1/0AL Seasons=1 Ratings=[400,] normamps=150 emergamps=150 units=km enabled=true phases=1
New "Line.hn_2p028_sw" bus1=1160489.1 bus2=mdv201_795elb_int.1 length=0.001 Switch=True units=km enabled=true phases=1
New "Line.mdv201_795elb" bus1=mdv201_795elb_int.1 bus2=795.1 length=0.001524 linecode=BUSBAR Seasons=1 Ratings=[400,] normamps=2000 emergamps=2000 units=km enabled=true phases=1
New "Line.s_mdv201_795elb-1a0" bus1=x_795.1 bus2=x_795_1.1 linecode=defaultSecondary Seasons=1 Ratings=[400,] normamps=400 emergamps=600 phases=1 length=100 units=ft
New "Line.s_mdv201_795elb-1a1" bus1=x_795.1 bus2=x_795_2.1 linecode=defaultSecondary Seasons=1 Ratings=[400,] normamps=400 emergamps=600 phases=1 length=100 units=ft
New "Line.mdv201_hn_2_436_abc63639" bus1=63638 bus2=63639 length=0.0423672 geometry=3PH_HORIZ_LG_1C-AL_556_19STRAL_556_19STRAL_556_19STRACSR_1/0_6/1 Seasons=1 Ratings=[0,] normamps=619 emergamps=743 units=km enabled=true phases=3
New "Line.s_mdv201_hn_2_436_abc63639-1b0" bus1=x_63639.2 bus2=x_63639_1.2 linecode=defaultSecondary Seasons=1 Ratings=[400,] normamps=400 emergamps=600 phases=1 length=100 units=ft
New "Line.mdv201_hn_2_435_abc63643" bus1=63639 bus2=63643 length=0.0606552 geometry=3PH_HORIZ_LG_1C-AL_556_19STRAL_556_19STRAL_556_19STRACSR_1/0_6/1 Seasons=1 Ratings=[0,] normamps=619 emergamps=743 units=km enabled=true phases=3
New "Line.s_mdv201_hn_2_435_abc63643-1b0" bus1=x_63643.2 bus2=x_63643_1.2 linecode=defaultSecondary Seasons=1 Ratings=[400,] normamps=400 emergamps=600 phases=1 length=100 units=ft
New "Line.s_mdv201_hn_2_435_abc63643-1b1" bus1=x_63643.2 bus2=x_63643_2.2 linecode=defaultSecondary Seasons=1 Ratings=[400,] normamps=400 emergamps=600 phases=1 length=100 units=ft
New "Line.mdv201_hn_2_434_abc63645" bus1=63643 bus2=63645 length=0.0612648 geometry=3PH_HORIZ_LG_1C-AL_556_19STRAL_556_19STRAL_556_19STRACSR_1/0_6/1 Seasons=1 Ratings=[0,] normamps=619 emergamps=743 units=km enabled=true phases=3
New "Line.s_mdv201_hn_2_434_abc63645-1b0" bus1=x_63645.2 bus2=x_63645_1.2 linecode=defaultSecondary Seasons=1 Ratings=[400,] normamps=400 emergamps=600 phases=1 length=100 units=ft
New "Line.s_mdv201_hn_2_434_abc63645-1b1" bus1=x_63645.2 bus2=x_63645_2.2 linecode=defaultSecondary Seasons=1 Ratings=[400,] normamps=400 emergamps=600 phases=1 length=100 units=ft
New "Line.mdv201_hn_2_408_abc63655" bus1=63645 bus2=63655 length=0.06096 geometry=3PH_HORIZ_LG_1C-AL_556_19STRAL_556_19STRAL_556_19STRACSR_1/0_6/1 Seasons=1 Ratings=[0,] normamps=619 emergamps=743 units=km enabled=true phases=3
New "Line.s_mdv201_hn_2_408_abc63655-1b0" bus1=x_63655.2 bus2=x_63655_1.2 linecode=defaultSecondary Seasons=1 Ratings=[400,] normamps=400 emergamps=600 phases=1 length=100 units=ft
New "Line.s_mdv201_hn_2_408_abc63655-1b1" bus1=x_63655.2 bus2=x_63655_2.2 linecode=defaultSecondary Seasons=1 Ratings=[400,] normamps=400 emergamps=600 phases=1 length=100 units=ft
New "Line.mdv201_hn_2_395_abc63657" bus1=63655 bus2=63657 length=0.0691896 geometry=3PH_VERT_1C-AL_556_19STRAL_556_19STRAL_556_19STRACSR_1/0_6/1 Seasons=1 Ratings=[0,] normamps=619 emergamps=743 units=km enabled=true phases=3
New "Line.s_mdv201_hn_2_395_abc63657-1b0" bus1=x_63657.2 bus2=x_63657_1.2 linecode=defaultSecondary Seasons=1 Ratings=[400,] normamps=400 emergamps=600 phases=1 length=100 units=ft
New "Line.mdv201_hn_2_394_abc63658" bus1=63657 bus2=63658 length=0.0381 geometry=3PH_VERT_1C-AL_556_19STRAL_556_19STRAL_556_19STRACSR_1/0_6/1 Seasons=1 Ratings=[0,] normamps=619 emergamps=743 units=km enabled=true phases=3
New "Line.s_mdv201_hn_2_394_abc63658-1b0" bus1=x_63658.2 bus2=x_63658_1.2 linecode=defaultSecondary Seasons=1 Ratings=[400,] normamps=400 emergamps=600 phases=1 length=100 units=ft
New "Line.mdv201_hn_2_393_abc63659" bus1=63658 bus2=63659 length=0.0539496 geometry=3PH_VERT_1C-AL_556_19STRAL_556_19STRAL_556_19STRACSR_1/0_6/1 Seasons=1 Ratings=[0,] normamps=619 emergamps=743 units=km enabled=true phases=3
New "Line.sw-hn_2_393_sw" bus1=63659 bus2=mdv201_107109usd_int length=0.001 Switch=True units=km enabled=true phases=3
New "Line.mdv201_107109usd" bus1=mdv201_107109usd_int bus2=107109 length=0.001524 geometry=3PH_HORIZ_LG_1C-BUSBARBUSBARBUSBARBUSBAR Seasons=1 Ratings=[0,] normamps=2000 emergamps=2400 units=km enabled=true phases=3
New "Line.mdv201_hn_2_145_abc63662" bus1=107109 bus2=63662 length=0.054864 geometry=3PH_VERT_1C-AL_556_19STRAL_556_19STRAL_556_19STRACSR_1/0_6/1 Seasons=1 Ratings=[0,] normamps=619 emergamps=743 units=km enabled=true phases=3
New "Line.mdv201_hn_2_146_abc63663" bus1=63662 bus2=63663 length=0.0749808 geometry=3PH_VERT_1C-AL_336_19STRAL_336_19STRAL_336_19STRACSR_1/0_6/1 Seasons=1 Ratings=[0,] normamps=453 emergamps=544 units=km enabled=true phases=3
New "Line.s_mdv201_hn_2_146_abc63663-1a0" bus1=x_63663.1 bus2=x_63663_1.1 linecode=defaultSecondary Seasons=1 Ratings=[400,] normamps=400 emergamps=600 phases=1 length=100 units=ft
New "Line.mdv201_hn_2_015_abc63665" bus1=63663 bus2=63665 length=0.077724 geometry=3PH_HORIZ_LG_1C-AL_336_19STRAL_336_19STRAL_336_19STRACSR_1/0_6/1 Seasons=1 Ratings=[0,] normamps=453 emergamps=544 units=km enabled=true phases=3
New "Line.s_mdv201_hn_2_015_abc63665-1a0" bus1=x_63665.1 bus2=x_63665_1.1 linecode=defaultSecondary Seasons=1 Ratings=[400,] normamps=400 emergamps=600 phases=1 length=100 units=ft
New "Line.s_mdv201_hn_2_015_abc63665-1a1" bus1=x_63665.1 bus2=x_63665_2.1 linecode=defaultSecondary Seasons=1 Ratings=[400,] normamps=400 emergamps=600 phases=1 length=100 units=ft
New "Line.mdv201_hn_2_016_abc63680" bus1=63665 bus2=63680 length=0.057912 geometry=3PH_HORIZ_LG_1C-AL_336_19STRAL_336_19STRAL_336_19STRACSR_1/0_6/1 Seasons=1 Ratings=[0,] normamps=453 emergamps=544 units=km enabled=true phases=3
New "Line.s_mdv201_hn_2_016_abc63680-1c0" bus1=x_63680.3 bus2=x_63680_1.3 linecode=defaultSecondary Seasons=1 Ratings=[400,] normamps=400 emergamps=600 phases=1 length=100 units=ft
New "Line.mdv201_hn_2_291_abc63681" bus1=63680 bus2=63681 length=0.059436 geometry=3PH_HORIZ_LG_1C-AL_336_19STRAL_336_19STRAL_336_19STRACSR_1/0_6/1 Seasons=1 Ratings=[0,] normamps=453 emergamps=544 units=km enabled=true phases=3
New "Line.s_mdv201_hn_2_291_abc63681-1a0" bus1=x_63681.1 bus2=x_63681_1.1 linecode=defaultSecondary Seasons=1 Ratings=[400,] normamps=400 emergamps=600 phases=1 length=100 units=ft
New "Line.s_mdv201_hn_2_291_abc63681-1a1" bus1=x_63681.1 bus2=x_63681_2.1 linecode=defaultSecondary Seasons=1 Ratings=[400,] normamps=400 emergamps=600 phases=1 length=100 units=ft
New "Line.s_mdv201_hn_2_291_abc63681-1a2" bus1=x_63681.1 bus2=x_63681_3.1 linecode=defaultSecondary Seasons=1 Ratings=[400,] normamps=400 emergamps=600 phases=1 length=100 units=ft
New "Line.mdv201_hn_2_293_abc63684" bus1=63681 bus2=63684 length=0.0707136 geometry=3PH_VERT_1C-AL_336_19STRAL_336_19STRAL_336_19STRACSR_1/0_6/1 Seasons=1 Ratings=[0,] normamps=453 emergamps=544 units=km enabled=true phases=3
New "Line.mdv201_1144263fuse" bus1=63684.1 bus2=1144263.1 length=0.001524 geometry=1PH-BUSBARNONENONEBUSBAR Seasons=1 Ratings=[0,] normamps=2000 emergamps=2400 units=km enabled=true phases=1
New "Line.s_mdv201_1144263fuse-1a0" bus1=x_1144263.1 bus2=x_1144263_1.1 linecode=defaultSecondary Seasons=1 Ratings=[400,] normamps=400 emergamps=600 phases=1 length=100 units=ft
New "Line.s_mdv201_1144263fuse-1a1" bus1=x_1144263.1 bus2=x_1144263_2.1 linecode=defaultSecondary Seasons=1 Ratings=[400,] normamps=400 emergamps=600 phases=1 length=100 units=ft
New "Line.s_mdv201_1144263fuse-1a2" bus1=x_1144263.1 bus2=x_1144263_3.1 linecode=defaultSecondary Seasons=1 Ratings=[400,] normamps=400 emergamps=600 phases=1 length=100 units=ft
New "Line.s_mdv201_1144263fuse-1a3" bus1=x_1144263.1 bus2=x_1144263_4.1 linecode=defaultSecondary Seasons=1 Ratings=[400,] normamps=400 emergamps=600 phases=1 length=100 units=ft
New "Line.mdv201_hn_2_725_a1144264" bus1=1144263.1 bus2=1144264.1 length=0.0566928 geometry=1PH-AL_1/0_7STRNONENONEACSR_1/0_6/1 Seasons=1 Ratings=[0,] normamps=218 emergamps=262 units=km enabled=true phases=1
New "Line.s_mdv201_hn_2_725_a1144264-1a0" bus1=x_1144264.1 bus2=x_1144264_1.1 linecode=defaultSecondary Seasons=1 Ratings=[400,] normamps=400 emergamps=600 phases=1 length=100 units=ft
New "Line.s_mdv201_hn_2_725_a1144264-1a1" bus1=x_1144264.1 bus2=x_1144264_2.1 linecode=defaultSecondary Seasons=1 Ratings=[400,] normamps=400 emergamps=600 phases=1 length=100 units=ft
New "Line.s_mdv201_hn_2_725_a1144264-1a2" bus1=x_1144264.1 bus2=x_1144264_3.1 linecode=defaultSecondary Seasons=1 Ratings=[400,] normamps=400 emergamps=600 phases=1 length=100 units=ft
New "Line.s_mdv201_hn_2_725_a1144264-1a3" bus1=x_1144264.1 bus2=x_1144264_4.1 linecode=defaultSecondary Seasons=1 Ratings=[400,] normamps=400 emergamps=600 phases=1 length=100 units=ft
New "Line.mdv201_hn_2_726_a63675" bus1=1144264.1 bus2=63675.1 length=0.0499872 geometry=1PH-AL_1/0_7STRNONENONEACSR_1/0_6/1 Seasons=1 Ratings=[0,] normamps=218 emergamps=262 units=km enabled=true phases=1
New "Line.s_mdv201_hn_2_726_a63675-1a0" bus1=x_63675.1 bus2=x_63675_1.1 linecode=defaultSecondary Seasons=1 Ratings=[400,] normamps=400 emergamps=600 phases=1 length=100 units=ft
New "Line.s_mdv201_hn_2_726_a63675-1a1" bus1=x_63675.1 bus2=x_63675_2.1 linecode=defaultSecondary Seasons=1 Ratings=[400,] normamps=400 emergamps=600 phases=1 length=100 units=ft
New "Line.s_mdv201_hn_2_726_a63675-1a2" bus1=x_63675.1 bus2=x_63675_3.1 linecode=defaultSecondary Seasons=1 Ratings=[400,] normamps=400 emergamps=600 phases=1 length=100 units=ft
New "Line.s_mdv201_hn_2_726_a63675-1a3" bus1=x_63675.1 bus2=x_63675_4.1 linecode=defaultSecondary Seasons=1 Ratings=[400,] normamps=400 emergamps=600 phases=1 length=100 units=ft
New "Line.mdv201_hn_2_613_abc63682" bus1=63684 bus2=63682 length=0.0435864 geometry=3PH_VERT_1C-AL_336_19STRAL_336_19STRAL_336_19STRACSR_1/0_6/1 Seasons=1 Ratings=[0,] normamps=453 emergamps=544 units=km enabled=true phases=3
New "Line.s_mdv201_hn_2_613_abc63682-1a0" bus1=x_63682.1 bus2=x_63682_1.1 linecode=defaultSecondary Seasons=1 Ratings=[400,] normamps=400 emergamps=600 phases=1 length=100 units=ft
New "Line.mdv201_hn_2_614_abc28232" bus1=63682 bus2=28232 length=0.0448056 geometry=3PH_HORIZ_LG_1C-AL_336_19STRAL_336_19STRAL_336_19STRACSR_1/0_6/1 Seasons=1 Ratings=[0,] normamps=453 emergamps=544 units=km enabled=true phases=3
New "Line.mdv201_hn_2_616_abc28226" bus1=28232 bus2=28226 length=0.0405384 geometry=3PH_HORIZ_LG_1C-AL_336_19STRAL_336_19STRAL_336_19STRACSR_1/0_6/1 Seasons=1 Ratings=[0,] normamps=453 emergamps=544 units=km enabled=true phases=3
New "Line.s_mdv201_hn_2_616_abc28226-1c0" bus1=x_28226.3 bus2=x_28226_1.3 linecode=defaultSecondary Seasons=1 Ratings=[400,] normamps=400 emergamps=600 phases=1 length=100 units=ft
New "Line.s_mdv201_hn_2_616_abc28226-1c1" bus1=x_28226.3 bus2=x_28226_2.3 linecode=defaultSecondary Seasons=1 Ratings=[400,] normamps=400 emergamps=600 phases=1 length=100 units=ft
New "Line.mdv201_1144262fuse" bus1=28226.3 bus2=1144262.3 length=0.001524 geometry=1PH-NONENONEBUSBARBUSBAR Seasons=1 Ratings=[0,] normamps=2000 emergamps=2400 units=km enabled=true phases=1
New "Line.mdv201_hn_2_620_c28227" bus1=1144262.3 bus2=28227.3 length=0.0509016 geometry=1PH-NONENONEAL_1/0_7STRACSR_1/0_6/1 Seasons=1 Ratings=[0,] normamps=218 emergamps=262 units=km enabled=true phases=1
New "Line.s_mdv201_hn_2_620_c28227-1c0" bus1=x_28227.3 bus2=x_28227_1.3 linecode=defaultSecondary Seasons=1 Ratings=[400,] normamps=400 emergamps=600 phases=1 length=100 units=ft
New "Line.s_mdv201_hn_2_620_c28227-1c1" bus1=x_28227.3 bus2=x_28227_2.3 linecode=defaultSecondary Seasons=1 Ratings=[400,] normamps=400 emergamps=600 phases=1 length=100 units=ft
New "Line.s_mdv201_hn_2_620_c28227-1c2" bus1=x_28227.3 bus2=x_28227_3.3 linecode=defaultSecondary Seasons=1 Ratings=[400,] normamps=400 emergamps=600 phases=1 length=100 units=ft
New "Line.mdv201_hn_2_621_c28222" bus1=28227.3 bus2=28222.3 length=0.051816 geometry=1PH-NONENONEAL_1/0_7STRACSR_1/0_6/1 Seasons=1 Ratings=[0,] normamps=218 emergamps=262 units=km enabled=true phases=1
New "Line.s_mdv201_hn_2_621_c28222-1c0" bus1=x_28222.3 bus2=x_28222_1.3 linecode=defaultSecondary Seasons=1 Ratings=[400,] normamps=400 emergamps=600 phases=1 length=100 units=ft
New "Line.s_mdv201_hn_2_621_c28222-1c1" bus1=x_28222.3 bus2=x_28222_2.3 linecode=defaultSecondary Seasons=1 Ratings=[400,] normamps=400 emergamps=600 phases=1 length=100 units=ft
New "Line.mdv201_hn_2_622_c28223" bus1=28222.3 bus2=28223.3 length=0.0612648 geometry=1PH-NONENONEAL_1/0_7STRACSR_1/0_6/1 Seasons=1 Ratings=[0,] normamps=218 emergamps=262 units=km enabled=true phases=1
New "Line.s_mdv201_hn_2_622_c28223-1c0" bus1=x_28223.3 bus2=x_28223_1.3 linecode=defaultSecondary Seasons=1 Ratings=[400,] normamps=400 emergamps=600 phases=1 length=100 units=ft
New "Line.s_mdv201_hn_2_622_c28223-1c1" bus1=x_28223.3 bus2=x_28223_2.3 linecode=defaultSecondary Seasons=1 Ratings=[400,] normamps=400 emergamps=600 phases=1 length=100 units=ft
New "Line.s_mdv201_hn_2_622_c28223-1c2" bus1=x_28223.3 bus2=x_28223_3.3 linecode=defaultSecondary Seasons=1 Ratings=[400,] normamps=400 emergamps=600 phases=1 length=100 units=ft
New "Line.s_mdv201_hn_2_622_c28223-1c3" bus1=x_28223.3 bus2=x_28223_4.3 linecode=defaultSecondary Seasons=1 Ratings=[400,] normamps=400 emergamps=600 phases=1 length=100 units=ft
New "Line.s_mdv201_hn_2_622_c28223-1c4" bus1=x_28223.3 bus2=x_28223_5.3 linecode=defaultSecondary Seasons=1 Ratings=[400,] normamps=400 emergamps=600 phases=1 length=100 units=ft
New "Line.mdv201_hn_2_623_c14865" bus1=28223.3 bus2=14865.3 length=0.0752856 geometry=1PH-NONENONEAL_1/0_7STRACSR_1/0_6/1 Seasons=1 Ratings=[0,] normamps=218 emergamps=262 units=km enabled=true phases=1
New "Line.s_mdv201_hn_2_623_c14865-1c0" bus1=x_14865.3 bus2=x_14865_1.3 linecode=defaultSecondary Seasons=1 Ratings=[400,] normamps=400 emergamps=600 phases=1 length=100 units=ft
New "Line.s_mdv201_hn_2_623_c14865-1c1" bus1=x_14865.3 bus2=x_14865_2.3 linecode=defaultSecondary Seasons=1 Ratings=[400,] normamps=400 emergamps=600 phases=1 length=100 units=ft
New "Line.mdv201_hn_2_624_c14866" bus1=14865.3 bus2=14866.3 length=0.0643128 geometry=1PH-NONENONEAL_1/0_7STRACSR_1/0_6/1 Seasons=1 Ratings=[0,] normamps=218 emergamps=262 units=km enabled=true phases=1
New "Line.s_mdv201_hn_2_624_c14866-1c0" bus1=x_14866.3 bus2=x_14866_1.3 linecode=defaultSecondary Seasons=1 Ratings=[400,] normamps=400 emergamps=600 phases=1 length=100 units=ft
New "Line.s_mdv201_hn_2_624_c14866-1c1" bus1=x_14866.3 bus2=x_14866_2.3 linecode=defaultSecondary Seasons=1 Ratings=[400,] normamps=400 emergamps=600 phases=1 length=100 units=ft
New "Line.s_mdv201_hn_2_624_c14866-1c2" bus1=x_14866.3 bus2=x_14866_3.3 linecode=defaultSecondary Seasons=1 Ratings=[400,] normamps=400 emergamps=600 phases=1 length=100 units=ft
New "Line.mdv201_hn_2_625_c14882" bus1=14866.3 bus2=14882.3 length=0.0326136 geometry=1PH-NONENONEAL_1/0_7STRACSR_1/0_6/1 Seasons=1 Ratings=[0,] normamps=218 emergamps=262 units=km enabled=true phases=1
New "Line.s_mdv201_hn_2_625_c14882-1c0" bus1=x_14882.3 bus2=x_14882_1.3 linecode=defaultSecondary Seasons=1 Ratings=[400,] normamps=400 emergamps=600 phases=1 length=100 units=ft
New "Line.mdv201_hn_2_626_c14867" bus1=14882.3 bus2=14867.3 length=0.06096 geometry=1PH-NONENONEAL_1/0_7STRACSR_1/0_6/1 Seasons=1 Ratings=[0,] normamps=218 emergamps=262 units=km enabled=true phases=1
New "Line.s_mdv201_hn_2_626_c14867-1c0" bus1=x_14867.3 bus2=x_14867_1.3 linecode=defaultSecondary Seasons=1 Ratings=[400,] normamps=400 emergamps=600 phases=1 length=100 units=ft
New "Line.s_mdv201_hn_2_626_c14867-1c1" bus1=x_14867.3 bus2=x_14867_2.3 linecode=defaultSecondary Seasons=1 Ratings=[400,] normamps=400 emergamps=600 phases=1 length=100 units=ft
New "Line.mdv201_hn_2_627_c14868" bus1=14867.3 bus2=14868.3 length=0.0310896 geometry=1PH-NONENONEAL_1/0_7STRACSR_1/0_6/1 Seasons=1 Ratings=[0,] normamps=218 emergamps=262 units=km enabled=true phases=1
New "Line.s_mdv201_hn_2_627_c14868-1c0" bus1=x_14868.3 bus2=x_14868_1.3 linecode=defaultSecondary Seasons=1 Ratings=[400,] normamps=400 emergamps=600 phases=1 length=100 units=ft
New "Line.mdv201_hn_2_617_abc28224" bus1=28226 bus2=28224 length=0.0493776 geometry=3PH_HORIZ_LG_1C-AL_336_19STRAL_336_19STRAL_336_19STRACSR_1/0_6/1 Seasons=1 Ratings=[0,] normamps=453 emergamps=544 units=km enabled=true phases=3
New "Line.mdv201_hn_2_618_abc28220" bus1=28224 bus2=28220 length=0.0338328 geometry=3PH_HORIZ_LG_1C-AL_336_19STRAL_336_19STRAL_336_19STRACSR_1/0_6/1 Seasons=1 Ratings=[0,] normamps=453 emergamps=544 units=km enabled=true phases=3
New "Line.s_mdv201_hn_2_618_abc28220-1a0" bus1=x_28220.1 bus2=x_28220_1.1 linecode=defaultSecondary Seasons=1 Ratings=[400,] normamps=400 emergamps=600 phases=1 length=100 units=ft
New "Line.s_mdv201_hn_2_618_abc28220-1a1" bus1=x_28220.1 bus2=x_28220_2.1 linecode=defaultSecondary Seasons=1 Ratings=[400,] normamps=400 emergamps=600 phases=1 length=100 units=ft
New "Line.s_mdv201_hn_2_618_abc28220-1a2" bus1=x_28220.1 bus2=x_28220_3.1 linecode=defaultSecondary Seasons=1 Ratings=[400,] normamps=400 emergamps=600 phases=1 length=100 units=ft
New "Line.mdv201_hn_2_619_abc52526" bus1=28220 bus2=52526 length=0.0664464 geometry=3PH_VERT_1C-AL_336_19STRAL_336_19STRAL_336_19STRACSR_1/0_6/1 Seasons=1 Ratings=[0,] normamps=453 emergamps=544 units=km enabled=true phases=3
New "Line.mdv201_105409fuse" bus1=52526 bus2=105409 length=0.001524 geometry=3PH_HORIZ_LG_1C-BUSBARBUSBARBUSBARBUSBAR Seasons=1 Ratings=[0,] normamps=2000 emergamps=2400 units=km enabled=true phases=3
New "Line.s_mdv201_105409fuse-1c0" bus1=x_105409.3 bus2=x_105409_1.3 linecode=defaultSecondary Seasons=1 Ratings=[400,] normamps=400 emergamps=600 phases=1 length=100 units=ft
New "Line.s_mdv201_105409fuse-1c1" bus1=x_105409.3 bus2=x_105409_2.3 linecode=defaultSecondary Seasons=1 Ratings=[400,] normamps=400 emergamps=600 phases=1 length=100 units=ft
New "Line.mdv201_hn_2_705_abc52524" bus1=105409 bus2=52524 length=0.0414528 geometry=3PH_VERT_1C-AL_4/0_7STRAL_4/0_7STRAL_4/0_7STRACSR_1/0_6/1 Seasons=1 Ratings=[0,] normamps=338 emergamps=406 units=km enabled=true phases=3
New "Line.s_mdv201_hn_2_705_abc52524-1a0" bus1=x_52524.1 bus2=x_52524_1.1 linecode=defaultSecondary Seasons=1 Ratings=[400,] normamps=400 emergamps=600 phases=1 length=100 units=ft
New "Line.s_mdv201_hn_2_705_abc52524-1a1" bus1=x_52524.1 bus2=x_52524_2.1 linecode=defaultSecondary Seasons=1 Ratings=[400,] normamps=400 emergamps=600 phases=1 length=100 units=ft
New "Line.mdv201_hn_2_816_abc14879" bus1=52524 bus2=14879 length=0.0691896 geometry=3PH_HORIZ_LG_1C-AL_4/0_7STRAL_4/0_7STRAL_4/0_7STRACSR_1/0_6/1 Seasons=1 Ratings=[0,] normamps=338 emergamps=406 units=km enabled=true phases=3
New "Line.s_mdv201_hn_2_816_abc14879-1a0" bus1=x_14879.1 bus2=x_14879_1.1 linecode=defaultSecondary Seasons=1 Ratings=[400,] normamps=400 emergamps=600 phases=1 length=100 units=ft
New "Line.s_mdv201_hn_2_816_abc14879-1a1" bus1=x_14879.1 bus2=x_14879_2.1 linecode=defaultSecondary Seasons=1 Ratings=[400,] normamps=400 emergamps=600 phases=1 length=100 units=ft
New "Line.mdv201_1140227fuse" bus1=14879.1 bus2=1140227.1 length=0.001524 geometry=1PH-BUSBARNONENONEBUSBAR Seasons=1 Ratings=[0,] normamps=2000 emergamps=2400 units=km enabled=true phases=1
New "Line.mdv201_hn_2_827_a14873" bus1=1140227.1 bus2=14873.1 length=0.0408432 geometry=1PH-AL_#2_7STRNONENONEACSR_1/0_6/1 Seasons=1 Ratings=[0,] normamps=163 emergamps=196 units=km enabled=true phases=1
New "Line.s_mdv201_hn_2_827_a14873-1a0" bus1=x_14873.1 bus2=x_14873_1.1 linecode=defaultSecondary Seasons=1 Ratings=[400,] normamps=400 emergamps=600 phases=1 length=100 units=ft
New "Line.s_mdv201_hn_2_827_a14873-1a1" bus1=x_14873.1 bus2=x_14873_2.1 linecode=defaultSecondary Seasons=1 Ratings=[400,] normamps=400 emergamps=600 phases=1 length=100 units=ft
New "Line.s_mdv201_hn_2_827_a14873-1a2" bus1=x_14873.1 bus2=x_14873_3.1 linecode=defaultSecondary Seasons=1 Ratings=[400,] normamps=400 emergamps=600 phases=1 length=100 units=ft
New "Line.mdv201_hn_2_830_a14875" bus1=14873.1 bus2=14875.1 length=0.0316992 geometry=1PH-AL_#2_7STRNONENONEACSR_1/0_6/1 Seasons=1 Ratings=[0,] normamps=163 emergamps=196 units=km enabled=true phases=1
New "Line.s_mdv201_hn_2_830_a14875-1a0" bus1=x_14875.1 bus2=x_14875_1.1 linecode=defaultSecondary Seasons=1 Ratings=[400,] normamps=400 emergamps=600 phases=1 length=100 units=ft
New "Line.mdv201_hn_2_817_abc14880" bus1=14879 bus2=14880 length=0.0710184 geometry=3PH_HORIZ_LG_1C-AL_4/0_7STRAL_4/0_7STRAL_4/0_7STRACSR_1/0_6/1 Seasons=1 Ratings=[0,] normamps=338 emergamps=406 units=km enabled=true phases=3
New "Line.s_mdv201_hn_2_817_abc14880-1a0" bus1=x_14880.1 bus2=x_14880_1.1 linecode=defaultSecondary Seasons=1 Ratings=[400,] normamps=400 emergamps=600 phases=1 length=100 units=ft
New "Line.mdv201_hn_2_818_abc63707" bus1=14880 bus2=63707 length=0.0588264 geometry=3PH_HORIZ_LG_1C-AL_4/0_7STRAL_4/0_7STRAL_4/0_7STRACSR_1/0_6/1 Seasons=1 Ratings=[0,] normamps=338 emergamps=406 units=km enabled=true phases=3
New "Line.mdv201_hn_2_819_abc8177" bus1=63707 bus2=8177 length=0.0710184 geometry=3PH_HORIZ_LG_1C-AL_4/0_7STRAL_4/0_7STRAL_4/0_7STRACSR_1/0_6/1 Seasons=1 Ratings=[0,] normamps=338 emergamps=406 units=km enabled=true phases=3
New "Line.s_mdv201_hn_2_819_abc8177-1a0" bus1=x_8177.1 bus2=x_8177_1.1 linecode=defaultSecondary Seasons=1 Ratings=[400,] normamps=400 emergamps=600 phases=1 length=100 units=ft
New "Line.mdv201_hn_2_286_abc8178" bus1=8177 bus2=8178 length=0.0813816 geometry=3PH_VERT_1C-AL_4/0_7STRAL_4/0_7STRAL_4/0_7STRACSR_1/0_6/1 Seasons=1 Ratings=[0,] normamps=338 emergamps=406 units=km enabled=true phases=3
New "Line.s_mdv201_hn_2_286_abc8178-1a0" bus1=x_8178.1 bus2=x_8178_1.1 linecode=defaultSecondary Seasons=1 Ratings=[400,] normamps=400 emergamps=600 phases=1 length=100 units=ft
New "Line.s_mdv201_hn_2_286_abc8178-1a1" bus1=x_8178.1 bus2=x_8178_2.1 linecode=defaultSecondary Seasons=1 Ratings=[400,] normamps=400 emergamps=600 phases=1 length=100 units=ft
New "Line.mdv201_hn_2_285_abc8181" bus1=8178 bus2=8181 length=0.0615696 geometry=3PH_HORIZ_LG_1C-AL_4/0_7STRAL_4/0_7STRAL_4/0_7STRACSR_1/0_6/1 Seasons=1 Ratings=[0,] normamps=338 emergamps=406 units=km enabled=true phases=3
New "Line.mdv201_1144256fuse" bus1=8181.1 bus2=1144256.1 length=0.001524 geometry=1PH-BUSBARNONENONEBUSBAR Seasons=1 Ratings=[0,] normamps=2000 emergamps=2400 units=km enabled=true phases=1
New "Line.mdv201_hn_2_303_a1144255" bus1=1144256.1 bus2=1144255.1 length=0.0978408 geometry=1PH-AL_#2_7STRNONENONEACSR_1/0_6/1 Seasons=1 Ratings=[0,] normamps=163 emergamps=196 units=km enabled=true phases=1
New "Line.s_mdv201_hn_2_303_a1144255-1a0" bus1=x_1144255.1 bus2=x_1144255_1.1 linecode=defaultSecondary Seasons=1 Ratings=[400,] normamps=400 emergamps=600 phases=1 length=100 units=ft
New "Line.mdv201_hn_2_304_a8174" bus1=1144255.1 bus2=8174.1 length=0.08382 geometry=1PH-AL_#2_7STRNONENONEACSR_1/0_6/1 Seasons=1 Ratings=[0,] normamps=163 emergamps=196 units=km enabled=true phases=1
New "Line.s_mdv201_hn_2_304_a8174-1a0" bus1=x_8174.1 bus2=x_8174_1.1 linecode=defaultSecondary Seasons=1 Ratings=[400,] normamps=400 emergamps=600 phases=1 length=100 units=ft
New "Line.s_mdv201_hn_2_304_a8174-1a1" bus1=x_8174.1 bus2=x_8174_2.1 linecode=defaultSecondary Seasons=1 Ratings=[400,] normamps=400 emergamps=600 phases=1 length=100 units=ft
New "Line.mdv201_hn_2_113_abc8184" bus1=8181 bus2=8184 length=0.0847344 geometry=3PH_VERT_1C-AL_4/0_7STRAL_4/0_7STRAL_4/0_7STRACSR_1/0_6/1 Seasons=1 Ratings=[0,] normamps=338 emergamps=406 units=km enabled=true phases=3
New "Line.s_mdv201_hn_2_113_abc8184-1a0" bus1=x_8184.1 bus2=x_8184_1.1 linecode=defaultSecondary Seasons=1 Ratings=[400,] normamps=400 emergamps=600 phases=1 length=100 units=ft
New "Line.mdv201_1144230fuse" bus1=8184.1 bus2=1144230.1 length=0.001524 geometry=1PH-BUSBARNONENONEBUSBAR Seasons=1 Ratings=[0,] normamps=2000 emergamps=2400 units=km enabled=true phases=1
New "Line.mdv201_hn_2_280_a8185" bus1=1144230.1 bus2=8185.1 length=0.0423672 geometry=1PH-CU_#6_1STRNONENONEACSR_1/0_6/1 Seasons=1 Ratings=[0,] normamps=125 emergamps=150 units=km enabled=true phases=1
New "Line.mdv201_hn_2_281_a8186" bus1=8185.1 bus2=8186.1 length=0.0826008 geometry=1PH-CU_#6_1STRNONENONEACSR_1/0_6/1 Seasons=1 Ratings=[0,] normamps=125 emergamps=150 units=km enabled=true phases=1
New "Line.s_mdv201_hn_2_281_a8186-1a0" bus1=x_8186.1 bus2=x_8186_1.1 linecode=defaultSecondary Seasons=1 Ratings=[400,] normamps=400 emergamps=600 phases=1 length=100 units=ft
New "Line.s_mdv201_hn_2_281_a8186-1a1" bus1=x_8186.1 bus2=x_8186_2.1 linecode=defaultSecondary Seasons=1 Ratings=[400,] normamps=400 emergamps=600 phases=1 length=100 units=ft
New "Line.mdv201_hn_2_070_a1144231" bus1=1144230.1 bus2=1144231.1 length=0.0310896 geometry=1PH-CU_#6_1STRNONENONEACSR_1/0_6/1 Seasons=1 Ratings=[0,] normamps=125 emergamps=150 units=km enabled=true phases=1
New "Line.s_mdv201_hn_2_070_a1144231-1a0" bus1=x_1144231.1 bus2=x_1144231_1.1 linecode=defaultSecondary Seasons=1 Ratings=[400,] normamps=400 emergamps=600 phases=1 length=100 units=ft
New "Line.mdv201_hn_21023_a8193" bus1=1144231.1 bus2=8193.1 length=0.050292 geometry=1PH-CU_#6_1STRNONENONEACSR_1/0_6/1 Seasons=1 Ratings=[0,] normamps=125 emergamps=150 units=km enabled=true phases=1
New "Line.s_mdv201_hn_21023_a8193-1a0" bus1=x_8193.1 bus2=x_8193_1.1 linecode=defaultSecondary Seasons=1 Ratings=[400,] normamps=400 emergamps=600 phases=1 length=100 units=ft
New "Line.mdv201_hn_2_072_a8187" bus1=8193.1 bus2=8187.1 length=0.0673608 geometry=1PH-CU_#6_1STRNONENONEACSR_1/0_6/1 Seasons=1 Ratings=[0,] normamps=125 emergamps=150 units=km enabled=true phases=1
New "Line.s_mdv201_hn_2_072_a8187-1a0" bus1=x_8187.1 bus2=x_8187_1.1 linecode=defaultSecondary Seasons=1 Ratings=[400,] normamps=400 emergamps=600 phases=1 length=100 units=ft
New "Line.s_mdv201_hn_2_072_a8187-1a1" bus1=x_8187.1 bus2=x_8187_2.1 linecode=defaultSecondary Seasons=1 Ratings=[400,] normamps=400 emergamps=600 phases=1 length=100 units=ft
New "Line.mdv201_hn_2_075_a14842" bus1=8187.1 bus2=14842.1 length=0.06096 geometry=1PH-CU_#6_1STRNONENONEACSR_1/0_6/1 Seasons=1 Ratings=[0,] normamps=125 emergamps=150 units=km enabled=true phases=1
New "Line.mdv201_hn_2_076_a14843" bus1=14842.1 bus2=14843.1 length=0.0618744 geometry=1PH-CU_#6_1STRNONENONEACSR_1/0_6/1 Seasons=1 Ratings=[0,] normamps=125 emergamps=150 units=km enabled=true phases=1
...
